ckt7_Mon_rfi_14_der050.csv
fault_bus,fault_type,fault_R_ohm,Va_mag_pu,Va_ang_deg,Vb_mag_pu,Vb_ang_deg,Vc_mag_pu,Vc_ang_deg,Ia_mag_A,Ia_ang_deg,Ib_mag_A,Ib_ang_deg,Ic_mag_A,Ic_ang_deg
318412,SLG,0,0.458964,-79.9904,1.40694,-130.845,1.00778,101.1792,737.4674,84.4874,1238.1953,35.6851,854.5534,-93.8711
318412,SLG,10,1.237884,-20.0739,1.236927,-139.6899,1.230805,99.8818,1054.2281,144.0722,1045.3021,24.5304,1042.5182,-96.015
318412,SLG,20,1.237788,-20.0526,1.237005,-139.6933,1.23083,99.8867,1054.1174,144.0934,1045.3837,24.5256,1042.5519,-96.0087
318412,SLG,30,1.237756,-20.0455,1.237031,-139.6945,1.230838,99.8883,1054.0805,144.1005,1045.4109,24.524,1042.5632,-96.0066
318412,SLG,40,1.23774,-20.0419,1.237044,-139.695,1.230843,99.8891,1054.062,144.104,1045.4245,24.5232,1042.5688,-96.0055
318412,LL,0,0.399948,-109.4476,0.284135,-156.7759,1.113718,107.5925,628.091,52.4384,469.2463,12.5978,914.5279,-85.0108
318412,LL,10,1.237833,-20.0837,1.23712,-139.7327,1.230647,99.8888,1054.1592,144.0596,1045.5225,24.4877,1042.3519,-96.0054
318412,LL,20,1.237762,-20.0575,1.237102,-139.7147,1.230751,99.8902,1054.083,144.0871,1045.494,24.5043,1042.4688,-96.0039
318412,LL,30,1.237739,-20.0488,1.237096,-139.7087,1.230786,99.8906,1054.0575,144.0963,1045.4845,24.5098,1042.5077,-96.0034
318412,LL,40,1.237727,-20.0444,1.237092,-139.7057,1.230803,99.8909,1054.0448,144.1008,1045.4797,24.5126,1042.5272,-96.0031
318412,3LG,0,0.171381,-94.1877,0.171174,146.0144,0.170767,25.5849,234.5228,71.1573,232.7779,-48.6449,232.8583,-169.1646
318412,3LG,10,1.237677,-20.0769,1.237069,-139.7424,1.230841,99.846,1053.9946,144.069,1045.4535,24.4752,1042.5738,-96.048
318412,3LG,20,1.237684,-20.0541,1.237076,-139.7196,1.230848,99.8688,1054.0007,144.0918,1045.4595,24.498,1042.5798,-96.0252
318412,3LG,30,1.237687,-20.0465,1.237079,-139.712,1.23085,99.8764,1054.0027,144.0994,1045.4615,24.5056,1042.5818,-96.0176
318412,3LG,40,1.237688,-20.0427,1.23708,-139.7082,1.230851,99.8802,1054.0037,144.1032,1045.4625,24.5094,1042.5827,-96.0138
243937,SLG,0,0.669384,-96.4356,1.896151,-156.9481,1.627831,127.2439,929.5156,64.0033,1730.6845,10.7132,1315.9792,-62.2294
243937,SLG,10,1.231871,-20.3672,1.242371,-139.7862,1.229877,100.1488,1049.2895,143.7163,1050.8216,24.4731,1040.6437,-95.7244
243937,SLG,20,1.234772,-20.1996,1.239737,-139.7415,1.230357,100.0205,1051.6394,143.9151,1048.1524,24.4971,1041.605,-95.8631
243937,SLG,30,1.235743,-20.1435,1.238854,-139.7266,1.230521,99.9776,1052.4265,143.9815,1047.2587,24.505,1041.9297,-95.9095
243937,SLG,40,1.236229,-20.1155,1.238412,-139.7192,1.230604,99.9561,1052.8208,144.0148,1046.8112,24.509,1042.0929,-95.9327
243937,LL,0,0.344376,-128.7356,0.34169,-141.0681,1.648526,104.1017,591.2874,31.4097,592.174,21.6838,1383.5148,-88.4563
243937,LL,10,1.230891,-20.1118,1.2365,-140.1203,1.235125,100.0592,1047.3433,143.9918,1046.0758,24.0766,1045.9705,-95.7718
243937,LL,20,1.234272,-20.0715,1.236795,-139.9095,1.232998,99.9761,1050.6566,144.0532,1045.7759,24.2977,1044.2826,-95.8862
243937,LL,30,1.235408,-20.0581,1.236892,-139.8388,1.232286,99.9481,1051.7689,144.0737,1045.6734,24.3718,1043.7181,-95.9247
243937,LL,40,1.235977,-20.0514,1.23694,-139.8033,1.231929,99.934,1052.3268,144.0839,1045.6219,24.409,1043.4354,-95.944
243937,3LG,0,0.042396,-77.6871,0.042346,162.5012,0.042249,42.0908,58.0019,87.6525,57.5765,-32.1618,57.5979,-152.6594
243937,3LG,10,1.236128,-20.1995,1.235522,-139.8654,1.229308,99.7232,1052.6748,143.9464,1044.1466,24.3522,1041.2756,-96.1707
243937,3LG,20,1.236911,-20.1155,1.236304,-139.7811,1.230082,99.8073,1053.3414,144.0304,1044.8067,24.4364,1041.9314,-96.0866
243937,3LG,30,1.237171,-20.0874,1.236564,-139.753,1.23034,99.8354,1053.5633,144.0585,1045.0264,24.4646,1042.1496,-96.0586
243937,3LG,40,1.237301,-20.0734,1.236694,-139.739,1.230469,99.8494,1053.6742,144.0725,1045.1362,24.4786,1042.2587,-96.0445
157347,SLG,0,0.571049,-36.1901,1.528825,-151.5874,1.435554,114.0077,793.2634,121.2822,1354.9806,13.8421,1183.505,-78.9668
157347,SLG,10,1.232859,-20.6982,1.24407,-139.633,1.226162,100.1398,1050.9353,143.376,1052.0327,24.669,1036.9352,-95.7664
157347,SLG,20,1.235295,-20.3669,1.240592,-139.6634,1.228471,100.0153,1052.4917,143.743,1048.7572,24.597,1039.7253,-95.8852
157347,SLG,30,1.236098,-20.2555,1.239425,-139.6742,1.229258,99.974,1053.0014,143.8664,1047.6616,24.572,1040.6709,-95.9244
157347,SLG,40,1.236498,-20.1996,1.238841,-139.6797,1.229654,99.9534,1053.2545,143.9283,1047.1132,24.5594,1041.1467,-95.944
157347,LL,0,0.532798,-25.6415,0.620836,-148.9122,1.512828,100.7884,670.3339,137.1669,898.2783,14.4201,1291.2718,-93.3049
157347,LL,10,1.228192,-20.452,1.239073,-140.2999,1.233136,100.2029,1045.2842,143.6091,1048.8078,23.9292,1043.4997,-95.6174
157347,LL,20,1.232913,-20.2441,1.238142,-139.9995,1.231967,100.0494,1049.6231,143.859,1047.1979,24.2241,1043.0052,-95.8078
157347,LL,30,1.2345,-20.1737,1.237804,-139.8989,1.23159,99.9972,1051.0794,143.9436,1046.6342,24.3228,1042.8568,-95.8722
157347,LL,40,1.235295,-20.1383,1.237629,-139.8484,1.231404,99.971,1051.8093,143.9861,1046.3472,24.3723,1042.7857,-95.9046
157347,3LG,0,0.586474,-24.9738,0.585701,-144.7843,0.584232,94.7798,799.2772,140.4058,792.5411,20.5949,792.8312,-99.9362
157347,3LG,10,1.235056,-20.3886,1.234464,-140.0546,1.228247,99.5346,1051.7611,143.7572,1043.2534,24.163,1040.376,-96.3593
157347,3LG,20,1.236383,-20.2105,1.235783,-139.8762,1.229561,99.7125,1052.8921,143.9353,1044.3677,24.3413,1041.489,-96.1814
157347,3LG,30,1.236821,-20.1509,1.236219,-139.8165,1.229994,99.7721,1053.2655,143.995,1044.7355,24.4011,1041.8564,-96.1219
157347,3LG,40,1.23704,-20.1211,1.236436,-139.7866,1.23021,99.8019,1053.4514,144.0248,1044.9187,24.4309,1042.0394,-96.092
298162,SLG,0,0.4544,-90.094,1.728599,-147.5913,1.310097,122.1597,817.656,71.2649,1559.7199,19.62,1032.164,-68.2967
298162,SLG,10,1.233849,-21.749,1.24982,-139.2292,1.215708,100.1644,1054.1156,142.2858,1056.5281,25.2029,1026.2119,-95.8295
298162,SLG,20,1.235871,-20.8954,1.243413,-139.4563,1.223191,100.0232,1054.1554,143.1944,1050.9289,24.8699,1034.3246,-95.9222
298162,SLG,30,1.2365,-20.6085,1.241294,-139.535,1.225725,99.9782,1054.1271,143.4999,1049.0917,24.7553,1037.0621,-95.9504
298162,SLG,40,1.236807,-20.4647,1.240238,-139.5748,1.227,99.9562,1054.105,143.6531,1048.179,24.6974,1038.437,-95.9639
298162,LL,0,0.289598,-139.3896,0.288716,-141.9288,1.525364,106.2601,522.6423,21.9516,520.5832,20.0504,1284.7068,-85.9496
298162,LL,10,1.218735,-21.4901,1.245353,-140.9514,1.228536,100.6385,1037.7224,142.4387,1055.9659,23.3632,1037.3449,-95.1325
298162,LL,20,1.2282,-20.7683,1.241423,-140.3235,1.22951,100.2674,1045.8615,143.2688,1050.8997,23.944,1039.7639,-95.5669
298162,LL,30,1.231361,-20.5243,1.240022,-140.1144,1.229916,100.1426,1048.5766,143.549,1049.1293,24.1368,1040.659,-95.712
298162,LL,40,1.232943,-20.4017,1.239305,-140.0099,1.230135,100.08,1049.9342,143.6897,1048.2287,24.233,1041.1235,-95.7846
298162,3LG,0,0.00753,-86.85,0.007523,153.3182,0.007502,32.9763,10.302,78.485,10.23,-41.3372,10.2268,-161.7679
298162,3LG,10,1.231017,-21.0205,1.230508,-140.686,1.224246,98.906,1048.3237,143.1249,1039.9161,23.5319,1036.979,-96.9878
298162,3LG,20,1.234392,-20.5272,1.233833,-140.1927,1.227586,99.3975,1051.1969,143.6184,1042.7226,24.0251,1039.8128,-96.4964
298162,3LG,30,1.2355,-20.3622,1.234925,-140.0277,1.228684,99.5619,1052.1406,143.7835,1043.644,24.19,1040.7439,-96.332
298162,3LG,40,1.236051,-20.2796,1.235468,-139.945,1.22923,99.6442,1052.6098,143.8662,1044.102,24.2726,1041.2069,-96.2497
165448,SLG,0,0.447428,-90.2812,1.735029,-147.3686,1.303257,122.4368,809.0632,71.1058,1565.6711,19.8361,1026.3218,-67.9576
165448,SLG,10,1.234245,-21.8811,1.250467,-139.1694,1.214261,100.1595,1054.772,142.1507,1056.9944,25.2794,1024.765,-95.8477
165448,SLG,20,1.23609,-20.962,1.243722,-139.4254,1.222458,100.0197,1054.5036,143.1263,1051.1423,24.9093,1033.596,-95.9325
165448,SLG,30,1.236652,-20.6531,1.241496,-139.5141,1.225236,99.9757,1054.3638,143.4543,1049.2294,24.7818,1036.5754,-95.9575
165448,SLG,40,1.236922,-20.4981,1.240388,-139.5591,1.226632,99.9542,1054.2842,143.6189,1048.2805,24.7174,1038.0716,-95.9693
165448,LL,0,0.286581,-140.084,0.285833,-142.461,1.526528,106.4614,519.7879,21.2959,517.839,19.5272,1286.3439,-85.7178
165448,LL,10,1.217688,-21.6291,1.246319,-141.0255,1.227761,100.6954,1036.9343,142.2827,1057.0017,23.3016,1036.3818,-95.0707
165448,LL,20,1.227687,-20.8389,1.241933,-140.3598,1.229089,100.2956,1045.4793,143.1897,1051.4396,23.9142,1039.2483,-95.5367
165448,LL,30,1.231022,-20.5717,1.240368,-140.1385,1.229628,100.1613,1048.3246,143.496,1049.494,24.1172,1040.3076,-95.692
165448,LL,40,1.23269,-20.4373,1.239566,-140.0279,1.229916,100.094,1049.7463,143.6499,1048.504,24.2184,1040.8571,-95.7697
165448,3LG,0,0.006975,-87.2388,0.006969,152.9274,0.006949,32.5926,9.5429,78.0956,9.4767,-41.7273,9.473,-162.151
165448,3LG,10,1.230566,-21.0996,1.230071,-140.7649,1.223797,98.8275,1047.94,143.0457,1039.548,23.453,1036.5972,-97.0662
165448,3LG,20,1.234172,-20.567,1.233621,-140.2323,1.227368,99.358,1051.0107,143.5786,1042.544,23.9854,1039.6271,-96.5358
165448,3LG,30,1.235355,-20.3888,1.234785,-140.0541,1.22854,99.5355,1052.0177,143.7569,1043.5262,24.1636,1040.6213,-96.3584
165448,3LG,40,1.235943,-20.2995,1.235363,-139.9649,1.229122,99.6244,1052.5181,143.8462,1044.0141,24.2528,1041.1154,-96.2695
165449,SLG,0,0.383597,-94.9699,1.791742,-147.2125,1.299076,124.9094,735.5587,66.6768,1622.6289,19.9363,1026.2811,-64.8151
165449,SLG,10,1.239812,-23.2194,1.257473,-138.5502,1.199087,100.1147,1062.8617,140.7898,1062.0672,26.0713,1009.6564,-96.035
165449,SLG,20,1.239205,-21.6359,1.24695,-139.1024,1.2148,99.9823,1058.8432,142.4407,1053.3435,25.3195,1026.0195,-96.0433
165449,SLG,30,1.238803,-21.1033,1.243584,-139.2959,1.220117,99.9474,1057.3229,142.9962,1050.6189,25.0583,1031.5223,-96.0351
165449,SLG,40,1.238564,-20.8361,1.241929,-139.3944,1.222789,99.9317,1056.5284,143.2749,1049.2928,24.9258,1034.2814,-96.0289
165449,LL,0,0.253793,-148.194,0.25378,-149.7644,1.560719,107.3872,488.533,13.4968,487.2953,12.4061,1323.6991,-84.5343
165449,LL,10,1.208035,-23.04,1.258015,-141.7737,1.21997,101.3061,1029.9059,140.6945,1069.1392,22.686,1026.5739,-94.4064
165449,LL,20,1.223119,-21.5583,1.248084,-140.7202,1.224703,100.5928,1042.2154,142.3827,1057.7386,23.624,1033.8665,-95.2198
165449,LL,30,1.228039,-21.0542,1.244532,-140.3754,1.226595,100.3572,1046.2083,142.9553,1053.7402,23.9278,1036.6151,-95.4846
165449,LL,40,1.230476,-20.8003,1.242713,-140.2044,1.227601,100.2401,1048.182,143.2433,1051.7056,24.078,1038.0488,-95.6156
165449,3LG,0,0.004049,-91.818,0.004047,148.3176,0.004035,28.0656,5.5398,73.5085,5.5048,-46.3316,5.4996,-166.6698
165449,3LG,10,1.227364,-21.8864,1.227081,-141.5477,1.220599,98.0506,1045.2225,142.2578,1037.0345,22.6712,1033.8656,-97.843
165449,3LG,20,1.232671,-20.9628,1.232224,-140.6258,1.225861,98.9673,1049.7372,143.1822,1041.3699,23.5925,1038.3388,-96.9265
165449,3LG,30,1.234376,-20.6532,1.233876,-140.3169,1.227556,99.2745,1051.1879,143.4922,1042.762,23.9012,1039.7799,-96.6193
165449,3LG,40,1.235217,-20.498,1.23469,-140.1622,1.228392,99.4285,1051.903,143.6475,1043.448,24.0558,1040.491,-96.4654
287274,SLG,0,0.391699,-83.2635,1.787323,-145.6384,1.250221,124.7345,725.4059,76.3958,1609.7819,21.4165,983.5471,-65.4314
287274,SLG,10,1.237573,-24.1376,1.263033,-138.1362,1.18845,100.1145,1063.0986,139.8396,1066.6516,26.603,998.8751,-96.1149
287274,SLG,20,1.238461,-22.1064,1.249464,-138.8781,1.209335,99.9655,1059.3114,141.9541,1055.3005,25.6048,1020.5306,-96.103
287274,SLG,30,1.238394,-21.4194,1.245193,-139.1426,1.216446,99.9325,1057.7154,142.6693,1051.8414,25.2526,1027.8458,-96.0793
287274,SLG,40,1.23829,-21.0741,1.24311,-139.278,1.220025,99.9191,1056.8532,143.0288,1050.1778,25.0731,1031.5183,-96.0637
287274,LL,0,0.219098,-113.5374,0.31183,-163.2724,1.552511,107.7961,404.205,37.5162,559.534,2.572,1317.3053,-84.3274
287274,LL,10,1.195116,-23.9869,1.260443,-142.3077,1.21537,101.762,1019.347,139.6197,1072.9773,22.2241,1020.7124,-93.8872
287274,LL,20,1.216882,-22.0538,1.249656,-140.9767,1.22183,100.8139,1037.1672,141.8242,1059.9417,23.408,1030.3607,-94.974
287274,LL,30,1.22394,-21.3894,1.245655,-140.5437,1.224552,100.5025,1042.9018,142.5784,1055.266,23.7876,1034.1521,-95.3246
287274,LL,40,1.227425,-21.0535,1.243582,-140.3295,1.22602,100.3481,1045.7253,142.959,1052.8703,23.9742,1036.1549,-95.4972
287274,3LG,0,0.137224,-57.6903,0.137183,-177.5801,0.136793,62.2187,187.7438,107.6313,186.6191,-12.2294,186.4496,-132.5104
287274,3LG,10,1.219482,-22.4085,1.219413,-142.0685,1.212787,97.5385,1038.5148,141.7344,1030.5712,22.1513,1027.2269,-98.3547
287274,3LG,20,1.228798,-21.2319,1.228459,-140.8938,1.222013,98.7034,1046.4426,142.9125,1038.1955,23.325,1035.0677,-97.1903
287274,3LG,30,1.231811,-20.8343,1.231382,-140.4972,1.225004,99.0969,1049.0059,143.3106,1040.6595,23.7212,1037.6111,-96.7969
287274,3LG,40,1.2333,-20.6346,1.232826,-140.298,1.226484,99.2946,1050.2721,143.5106,1041.8765,23.9202,1038.869,-96.5993
283954,SLG,0,0.361257,-85.5779,1.80194,-146.1403,1.266154,125.3748,689.1716,73.7629,1626.584,20.8737,999.7293,-64.5364
283954,SLG,10,1.241365,-24.942,1.267465,-137.77,1.179277,100.0903,1068.373,139.0282,1069.9721,27.073,989.7342,-96.2284
283954,SLG,20,1.240762,-22.5112,1.251324,-138.681,1.20471,99.9355,1062.3043,141.5458,1056.5423,25.8542,1015.9785,-96.1796
283954,SLG,30,1.240019,-21.6896,1.246347,-139.0083,1.21336,99.9085,1059.7902,142.3968,1052.5693,25.4217,1024.8217,-96.1347
283954,SLG,40,1.239543,-21.2769,1.243942,-139.1763,1.217712,99.8996,1058.4392,142.8243,1050.6852,25.2009,1029.2551,-96.1068
283954,LL,0,0.199589,-112.5209,0.299766,-168.7802,1.571494,107.6895,377.0841,35.8514,547.8537,-2.3212,1338.0936,-84.3594
283954,LL,10,1.189496,-24.8443,1.2681,-142.7807,1.211055,102.1548,1015.3596,138.6512,1080.8498,21.8302,1015.1319,-93.4518
283954,LL,20,1.214489,-22.4973,1.253725,-141.1952,1.21911,100.9966,1035.5657,141.3274,1064.035,23.233,1027.0334,-94.7789
283954,LL,30,1.222447,-21.6879,1.24841,-140.685,1.22262,100.6205,1041.9288,142.2448,1058.0178,23.6762,1031.8238,-95.2004
283954,LL,40,1.226345,-21.2784,1.245662,-140.4338,1.224528,100.4351,1045.032,142.708,1054.941,23.8927,1034.369,-95.4063
283954,3LG,0,0.144642,-59.9908,0.144649,-179.9079,0.144246,59.9479,197.8848,105.3246,196.8059,-14.5558,196.5955,-134.7741
283954,3LG,10,1.218011,-22.8874,1.218178,-142.5429,1.211308,97.0715,1037.2731,141.2542,1029.5436,21.678,1025.948,-98.8216
283954,3LG,20,1.22818,-21.4756,1.227955,-141.1346,1.221375,98.4656,1045.9231,142.6682,1037.7763,23.0848,1034.5142,-97.4281
283954,3LG,30,1.231427,-20.9977,1.231072,-140.6586,1.224604,98.9374,1048.6834,143.1468,1040.4019,23.5603,1037.2624,-96.9564
283954,3LG,40,1.233022,-20.7574,1.232603,-140.4193,1.226193,99.1747,1050.0393,143.3874,1041.6916,23.7992,1038.6153,-96.7192
283956,SLG,0,0.577638,-70.2505,1.733783,-142.9822,1.172092,122.0889,953.3731,91.2507,1538.9705,24.305,906.1892,-69.7458
283956,SLG,10,1.240833,-24.8544,1.267051,-137.8093,1.180229,100.0957,1067.6994,139.1158,1069.677,27.0226,990.6785,-96.2129
283956,SLG,20,1.240604,-22.4887,1.251242,-138.6918,1.204953,99.9379,1062.1126,141.5683,1056.4934,25.8406,1016.2166,-96.1745
283956,SLG,30,1.239945,-21.6795,1.246313,-139.0133,1.213469,99.9097,1059.7016,142.4069,1052.5514,25.4155,1024.928,-96.1322
283956,SLG,40,1.239501,-21.2711,1.243924,-139.1791,1.217773,99.9004,1058.3885,142.8301,1050.6762,25.1973,1029.3152,-96.1054
283956,LL,0,0.414598,-74.9412,0.52862,-171.3364,1.496736,108.2597,612.3152,79.7663,827.244,-2.8807,1253.124,-84.2483
283956,LL,10,1.190319,-24.7447,1.2667,-142.7362,1.211688,102.1048,1015.9373,138.7656,1079.4867,21.8637,1015.933,-93.5068
283956,LL,20,1.214672,-22.4706,1.253353,-141.1854,1.219313,100.9849,1035.6866,141.3576,1063.6781,23.2397,1027.2775,-94.7911
283956,LL,30,1.222525,-21.6757,1.248242,-140.6808,1.222717,100.6154,1041.9792,142.2585,1057.8573,23.6789,1031.9387,-95.2056
283956,LL,40,1.226388,-21.2714,1.245567,-140.4315,1.224584,100.4323,1045.0597,142.7158,1054.8504,23.8942,1034.4355,-95.4091
283956,3LG,0,0.407091,-56.8749,0.407231,-176.7629,0.405772,63.0575,557.0501,108.4403,554.0668,-11.4073,553.057,-131.6729
283956,3LG,10,1.21807,-22.8468,1.218218,-142.5027,1.21137,97.111,1037.3223,141.2949,1029.576,21.7181,1026.0026,-98.7821
283956,3LG,20,1.228192,-21.465,1.227962,-141.1241,1.221389,98.476,1045.9332,142.6788,1037.7823,23.0953,1034.5263,-97.4177
283956,3LG,30,1.231432,-20.9929,1.231076,-140.6538,1.22461,98.9422,1048.6879,143.1516,1040.4047,23.565,1037.2679,-96.9517
283956,3LG,40,1.233025,-20.7547,1.232606,-140.4166,1.226196,99.1774,1050.0421,143.3902,1041.6934,23.802,1038.6187,-96.7165
189963,SLG,0,0.153506,-93.4881,1.871075,-145.9135,1.263711,128.4198,418.044,61.8524,1700.4697,20.6816,1012.3691,-60.4837
189963,SLG,10,1.216083,-27.874,1.288153,-136.5634,1.145578,100.2351,1053.1766,135.9536,1088.8865,28.6313,954.8807,-96.2719
189963,SLG,20,1.229614,-24.019,1.260214,-137.9916,1.187245,99.9184,1056.0803,139.9653,1064.2331,26.7336,998.1509,-96.3068
189963,SLG,30,1.232948,-22.703,1.251889,-138.5306,1.201623,99.8771,1055.9669,141.3346,1057.2408,26.0283,1012.8911,-96.2424
189963,SLG,40,1.234379,-22.0398,1.247946,-138.8114,1.20888,99.8687,1055.6965,142.0247,1054.0096,25.6631,1020.2964,-96.1961
189963,LL,0,0.081782,-162.2241,0.130837,-163.1347,1.631566,107.9733,263.268,-6.2515,328.9712,-4.8333,1413.8561,-84.1161
189963,LL,10,1.130081,-27.8091,1.259557,-144.6241,1.200869,103.7644,965.1421,135.2279,1080.097,20.1599,1001.4093,-91.5285
189963,LL,20,1.185718,-24.0741,1.250666,-142.0552,1.210938,101.7537,1011.4194,139.5376,1064.5719,22.4764,1017.0514,-93.9026
189963,LL,30,1.203549,-22.7577,1.246578,-141.2423,1.216519,101.1086,1026.1044,141.0368,1058.5108,23.1917,1024.5271,-94.6422
189963,LL,40,1.212288,-22.0873,1.244355,-140.8454,1.219715,100.7941,1033.2739,141.7969,1055.3504,23.5371,1028.6661,-94.9983
189963,3LG,0,0.028345,-14.602,0.028355,-134.6059,0.028358,105.4015,38.764,150.6951,38.601,30.7305,38.652,-89.2917
189963,3LG,10,1.17724,-24.5041,1.178405,-144.1527,1.171012,95.5136,1002.5665,139.6309,996.0236,20.0722,991.7099,-100.3768
189963,3LG,20,1.207707,-22.3274,1.20798,-141.9786,1.201047,97.6446,1028.5057,141.8132,1020.9373,22.2432,1017.2375,-98.2483
189963,3LG,30,1.217774,-21.5753,1.217746,-141.23,1.211024,98.3804,1037.07,142.5671,1029.1667,22.9905,1025.7205,-97.513
189963,3LG,40,1.222783,-21.1942,1.222607,-140.8512,1.216,98.7533,1041.3304,142.9491,1033.263,23.3686,1029.9515,-97.1403
181977,SLG,0,0.226357,-76.4782,1.837714,-145.1657,1.237735,126.9694,488.8291,75.8949,1660.9136,21.4753,984.8483,-62.5596
181977,SLG,10,1.218193,-28.4547,1.292176,-136.3265,1.138929,100.2573,1056.4521,135.3691,1092.2181,28.9407,948.1531,-96.3107
181977,SLG,20,1.231486,-24.3336,1.261766,-137.8411,1.183623,99.8971,1058.486,139.6502,1065.327,26.9246,994.5834,-96.3654
181977,SLG,30,1.234395,-22.9174,1.25279,-138.4235,1.199164,99.8554,1057.7551,141.1201,1057.8094,26.1629,1010.4897,-96.2901
181977,SLG,40,1.235541,-22.2023,1.248566,-138.7287,1.207022,99.8495,1057.1084,141.8622,1054.3713,25.7666,1018.4901,-96.2352
181977,LL,0,0.113869,-78.4185,0.233541,-172.8489,1.606924,107.8132,197.0105,41.2614,459.5317,-8.5258,1386.3124,-84.4487
181977,LL,10,1.125195,-28.3789,1.265019,-145.0401,1.199379,104.094,961.4236,134.5663,1085.8842,19.7924,998.9532,-91.1437
181977,LL,20,1.183862,-24.4166,1.254031,-142.2419,1.209039,101.9092,1010.1853,139.1511,1067.957,22.3226,1014.6588,-93.7322
181977,LL,30,1.202489,-22.9976,1.248927,-141.3605,1.215004,101.2069,1025.4588,140.7682,1060.838,23.0975,1022.6912,-94.5374
181977,LL,40,1.211566,-22.2713,1.246151,-140.9315,1.218489,100.8654,1032.8609,141.5915,1057.1157,23.4698,1027.2037,-94.9234
181977,3LG,0,0.154245,-47.9044,0.15436,-167.8876,0.154251,72.1156,210.9662,117.3913,210.1276,-2.5444,210.2237,-122.5815
181977,3LG,10,1.176562,-24.8438,1.177948,-144.4895,1.170356,95.1851,1001.9951,139.2899,995.6536,19.7364,991.1318,-100.705
181977,3LG,20,1.207456,-22.519,1.207835,-142.1671,1.200772,97.459,1028.2991,141.6209,1020.8215,22.0553,1016.9908,-98.434
181977,3LG,30,1.217635,-21.708,1.217675,-141.3603,1.210859,98.2518,1036.957,142.4341,1029.1098,22.8607,1025.5718,-97.6417
181977,3LG,40,1.22269,-21.2956,1.222564,-140.9506,1.215884,98.6549,1041.256,142.8474,1033.2286,23.2695,1029.847,-97.2388
181924,SLG,0,0.052318,-101.1331,1.87734,-148.2347,1.340423,128.3327,290.5262,49.7163,1715.1442,18.0931,1091.1517,-60.4957
181924,SLG,10,1.226492,-30.2179,1.302803,-135.5812,1.119016,100.2318,1068.0157,133.6184,1100.8454,29.9017,928.1865,-96.538
181924,SLG,20,1.236973,-25.1651,1.265325,-137.4357,1.17418,99.8109,1065.3054,138.8239,1067.7043,27.4357,985.3401,-96.5542
181924,SLG,30,1.238324,-23.4589,1.254748,-138.1493,1.193039,99.7842,1062.5032,140.582,1058.9467,26.5057,1004.5406,-96.4292
181924,SLG,40,1.238585,-22.6033,1.249879,-138.522,1.202499,99.7913,1060.7402,141.4636,1055.0564,26.0237,1014.114,-96.3439
181924,LL,0,0.030077,-172.1504,0.041654,-171.2557,1.662916,106.0919,195.7291,-19.4141,210.5167,-18.2367,1453.2997,-86.2509
181924,LL,10,1.110811,-30.3033,1.283735,-146.1722,1.192238,105.0934,951.2687,132.359,1105.0955,18.8308,988.9488,-89.984
181924,LL,20,1.179283,-25.3732,1.263312,-142.6968,1.203226,102.3095,1007.4032,138.0792,1077.157,21.9613,1007.5776,-93.2972
181924,LL,30,1.200038,-23.6282,1.254966,-141.6397,1.210779,101.4466,1024.115,140.066,1066.7588,22.8818,1017.6836,-94.2843
181924,LL,40,1.209952,-22.7409,1.250607,-141.1323,1.215213,101.0347,1032.0421,141.0703,1061.461,23.3171,1023.3669,-94.7476
181924,3LG,0,0.006694,-18.9088,0.006699,-138.8814,0.006696,101.1199,9.1551,146.3855,9.1199,26.4616,9.1256,-93.5766
181924,3LG,10,1.173965,-25.8652,1.175785,-145.4918,1.16763,94.1923,999.8214,138.2659,993.8475,18.7373,988.7639,-101.6983
181924,3LG,20,1.206667,-23.0276,1.207192,-142.6635,1.199825,96.9626,1027.6524,141.1114,1020.2791,21.5607,1016.1623,-98.9311
181924,3LG,30,1.217229,-22.046,1.217346,-141.6898,1.210331,97.9212,1036.6293,142.0955,1028.8311,22.5322,1025.1081,-97.9729
181924,3LG,40,1.222432,-21.5487,1.222355,-141.1973,1.215528,98.4071,1041.0495,142.594,1033.0511,23.0237,1029.5338,-97.487
181993,SLG,0,0.023379,-110.1311,1.86746,-148.9743,1.363363,127.7874,254.0959,44.3195,1708.822,17.2522,1114.5503,-61.092
181993,SLG,10,1.227175,-31.1836,1.310384,-135.3204,1.109838,100.383,1070.7932,132.6321,1107.6939,30.2704,918.3905,-96.458
181993,SLG,20,1.238254,-25.6402,1.268301,-137.2707,1.169501,99.8371,1067.4885,138.3382,1070.1647,27.6588,980.5071,-96.5708
181993,SLG,30,1.239384,-23.7727,1.256519,-138.0331,1.18994,99.7916,1064.1282,140.2611,1060.3427,26.6608,1001.3714,-96.4511
181993,SLG,40,1.239455,-22.8374,1.251124,-138.4329,1.200188,99.7933,1062.0209,141.2242,1056.0089,26.1419,1011.7619,-96.3641
181993,LL,0,0.015616,-176.2804,0.016524,178.5457,1.666142,105.446,176.5885,-23.7796,177.8069,-24.33,1459.2797,-86.9762
181993,LL,10,1.10062,-31.1688,1.291177,-146.9296,1.192666,105.6115,943.0062,131.3345,1113.453,18.1348,987.7745,-89.3476
181993,LL,20,1.175478,-25.8399,1.267524,-143.0218,1.201788,102.54,1004.4779,137.5456,1081.6219,21.6747,1005.3393,-93.0313
181993,LL,30,1.197828,-23.9431,1.2578,-141.8437,1.209521,101.5889,1022.4577,139.7093,1069.7179,22.7049,1015.9119,-94.1241
181993,LL,40,1.208421,-22.978,1.252731,-141.2806,1.21417,101.1366,1030.9101,140.8028,1063.6627,23.1896,1021.9485,-94.6343
181993,3LG,0,0.000987,-86.7043,0.000988,153.3215,0.000987,33.2954,1.35,78.5943,1.3445,-41.3388,1.3458,-161.402
181993,3LG,10,1.17215,-26.4104,1.174144,-146.0291,1.165779,93.6588,998.2907,137.7196,992.4694,18.2012,987.1732,-102.2321
181993,3LG,20,1.206023,-23.3093,1.206602,-142.9396,1.199112,96.6861,1027.1143,140.8294,1019.7808,21.2853,1015.5469,-99.208
181993,3LG,30,1.216865,-22.2356,1.217009,-141.8755,1.209912,97.7347,1036.3273,141.9058,1028.5452,22.3471,1024.7458,-98.1597
181993,3LG,40,1.222184,-21.6915,1.222124,-141.3371,1.215236,98.2665,1040.845,142.4511,1032.8547,22.8843,1029.2813,-97.6279
181994,SLG,0,0.000587,-114.029,1.852957,-149.3113,1.372539,127.1247,4025.6658,-112.7047,1696.6603,16.8147,1124.7908,-61.8425
181994,SLG,10,1.224113,-32.2152,1.318418,-135.0997,1.101132,100.58,332.8686,83.8786,1115.2863,30.5955,908.7859,-96.3123
181994,SLG,20,1.237854,-26.1566,1.271507,-137.1163,1.164887,99.8783,651.7097,126.9155,1072.9695,27.8728,975.6164,-96.5666
181994,SLG,30,1.239374,-24.1155,1.25843,-137.9219,1.186858,99.8072,783.1891,133.9062,1061.9473,26.8123,998.1413,-96.4617
181994,SLG,40,1.239544,-23.0937,1.252466,-138.3467,1.197882,99.8007,850.3285,136.8253,1057.1078,26.2584,1009.3577,-96.3768
181994,LL,0,0.000678,-71.6903,0.000922,132.609,1.6636,105.0123,4990.2253,-70.4536,6492.7685,132.1515,1459.1487,-87.4909
181994,LL,10,1.087279,-32.0432,1.294919,-147.7933,1.194444,106.1185,301.6194,78.326,323.7613,-30.3912,988.0767,-88.7035
181994,LL,20,1.170071,-26.3321,1.270218,-143.4,1.200735,102.7755,608.7301,125.5226,654.9667,10.7354,1003.487,-92.7506
181994,LL,30,1.194571,-24.2788,1.25968,-142.0824,1.208451,101.7351,749.1849,133.1295,784.6607,16.6084,1014.3216,-93.9542
181994,LL,40,1.206114,-23.2319,1.254158,-141.4545,1.213243,101.2415,822.8951,136.2825,849.9621,18.962,1020.6401,-94.514
181994,3LG,0,0.000903,-87.6761,0.000904,152.3667,0.000903,32.3336,6499.2671,-87.6733,6505.8566,152.3695,6501.7084,32.3363
181994,3LG,10,1.167621,-27.0169,1.169795,-146.6277,1.161237,93.0647,295.6247,86.0659,290.1204,-34.476,290.7211,-154.7696
181994,3LG,20,1.204021,-23.6278,1.20466,-143.252,1.197045,96.3733,619.9271,129.4942,612.2764,9.8726,610.8572,-110.6602
181994,3LG,30,1.215601,-22.451,1.215774,-142.0866,1.208593,97.5228,758.836,135.6598,750.926,16.0723,748.8907,-104.4608
181994,3LG,40,1.221264,-21.8542,1.221222,-141.4965,1.214271,98.1063,830.7933,138.1424,822.74,18.5593,820.4452,-101.9722
181891,SLG,0,0.299822,-47.4214,1.780305,-145.546,1.249483,124.2781,510.1216,100.5924,1596.9418,20.7651,1001.638,-66.4025
181891,SLG,10,1.230135,-30.4045,1.304356,-135.2974,1.112801,100.1118,1072.1146,133.4585,1101.6641,30.2288,922.6374,-96.7286
181891,SLG,20,1.241448,-25.3116,1.264865,-137.2271,1.170558,99.6706,1069.8218,138.7041,1066.6858,27.6713,982.2704,-96.7462
181891,SLG,30,1.241949,-23.5646,1.254064,-137.9981,1.190596,99.6722,1066.0976,140.4971,1057.8516,26.6746,1002.5171,-96.5782
181891,SLG,40,1.241549,-22.685,1.249211,-138.4047,1.200671,99.7005,1063.6576,141.3988,1054.0671,26.1539,1012.6184,-96.4634
181891,LL,0,0.234794,-39.0069,0.32353,-156.7881,1.576412,106.4276,246.6128,108.6127,548.288,4.1773,1357.1864,-86.4938
181891,LL,10,1.108875,-30.4839,1.287396,-146.3264,1.190566,105.3644,949.9187,132.1301,1108.7754,18.7035,986.9133,-89.681
181891,LL,20,1.180146,-25.6409,1.267393,-142.7108,1.19955,102.4302,1008.8097,137.7863,1080.7583,21.9861,1003.7211,-93.1849
181891,LL,30,1.201227,-23.8387,1.258011,-141.629,1.207754,101.5112,1025.6776,139.8398,1069.3659,22.9238,1014.5749,-94.2328
181891,LL,40,1.211097,-22.9097,1.252984,-141.1162,1.212747,101.0758,1033.4653,140.8902,1063.4643,23.3586,1020.8567,-94.7192
181891,3LG,0,0.276995,-32.4515,0.277375,-152.3277,0.27667,87.595,378.9797,132.8459,377.5073,13.0316,377.0049,-107.12
181891,3LG,10,1.174721,-25.9521,1.176472,-145.5727,1.168261,94.1029,1000.4771,138.1795,994.4143,18.6567,989.3004,-101.7886
181891,3LG,20,1.207564,-23.1213,1.208036,-142.7514,1.200594,96.8684,1028.4281,141.0181,1020.9815,21.4732,1016.8125,-99.0261
181891,3LG,30,1.217974,-22.1195,1.218044,-141.759,1.210974,97.847,1037.2728,142.0223,1029.4123,22.4634,1025.6527,-98.0476
181891,3LG,40,1.22305,-21.6079,1.222934,-141.2531,1.216065,98.3473,1041.5834,142.535,1033.5324,22.9681,1029.988,-97.5474
255335,SLG,0,0.148098,-47.4966,1.819938,-147.5623,1.313845,125.9308,3556.2781,-110.9917,1678.4358,16.9052,1118.6333,-62.7288
255335,SLG,10,1.229031,-32.6235,1.321186,-134.6938,1.091877,100.4232,330.9723,78.6626,1130.0207,31.0852,892.2557,-95.9276
255335,SLG,20,1.24262,-26.3923,1.271465,-136.8528,1.160024,99.7196,644.5226,125.216,1078.7193,28.2425,966.6321,-96.5186
255335,SLG,30,1.24309,-24.276,1.25799,-137.7364,1.183656,99.6843,778.0644,132.8731,1065.2833,27.0825,992.112,-96.4595
255335,SLG,40,1.242533,-23.2148,1.251972,-138.2046,1.195509,99.7024,846.4418,136.0783,1059.4071,26.469,1004.8375,-96.3858
255335,LL,0,0.153154,-34.391,0.173152,-166.4171,1.627061,105.5366,4254.5452,-68.5238,5625.9594,134.6409,1453.5459,-87.8782
255335,LL,10,1.082116,-32.577,1.302064,-148.0123,1.190609,106.5661,293.5197,73.4823,327.4514,-35.3457,991.5928,-87.5642
255335,LL,20,1.169721,-26.7307,1.275269,-143.4345,1.19598,102.9538,596.1751,123.8294,651.3355,9.3469,1000.9121,-92.2115
255335,LL,30,1.194993,-24.5653,1.263175,-142.0847,1.204766,101.8315,739.6912,132.0787,782.0643,15.8199,1011.7701,-93.6232
255335,LL,40,1.20669,-23.4533,1.256796,-141.4483,1.210315,101.3042,815.4334,135.5149,847.989,18.4118,1018.4478,-94.2786
255335,3LG,0,0.171982,-38.8937,0.172334,-158.7634,0.171892,81.1826,5583.2363,-85.3196,5592.017,154.7369,5585.2219,34.6961
255335,3LG,10,1.166835,-27.2016,1.169157,-146.7954,1.160256,92.8953,293.724,81.9068,288.7464,-38.5883,288.8742,-158.8675
255335,3LG,20,1.204106,-23.7653,1.204756,-143.3777,1.19693,96.2425,611.0227,128.2289,603.6554,8.6255,601.9778,-111.9018
255335,3LG,30,1.215793,-22.5525,1.215952,-142.1798,1.208631,97.425,751.834,134.9036,744.1115,15.3289,741.8863,-105.2025
255335,3LG,40,1.221463,-21.9339,1.221401,-141.5699,1.214348,98.029,825.1846,137.5984,817.2694,18.0249,814.8259,-102.506
182030,SLG,0,0.187858,-52.1954,1.810975,-146.9206,1.293112,125.594,3452.479,-109.362,1666.8525,17.6535,1095.3578,-63.117
182030,SLG,10,1.227895,-32.5231,1.32084,-134.7462,1.093065,100.4442,328.5331,80.1091,1129.6947,31.0186,893.5012,-95.8938
182030,SLG,20,1.242251,-26.3686,1.271465,-136.8675,1.160295,99.7285,645.1273,125.4091,1078.7371,28.2238,966.9109,-96.5059
182030,SLG,30,1.242914,-24.2657,1.258005,-137.743,1.18377,99.6886,778.3823,132.9436,1065.3074,27.0742,992.2284,-96.4534
182030,SLG,40,1.242431,-23.2091,1.251984,-138.2083,1.195571,99.7049,846.6284,136.1147,1059.4253,26.4643,1004.9006,-96.3823
182030,LL,0,0.189519,-35.672,0.226386,-169.6696,1.617329,105.8418,4062.6581,-67.7052,5391.7384,136.0713,1441.8952,-87.519
182030,LL,10,1.082696,-32.434,1.300177,-147.9608,1.191455,106.4992,292.5705,74.9837,324.1768,-34.0276,992.5563,-87.6489
182030,LL,20,1.169708,-26.6936,1.274788,-143.4278,1.196323,102.9427,597.2003,124.0237,651.6172,9.5121,1001.2941,-92.2246
182030,LL,30,1.194962,-24.549,1.262968,-142.0826,1.204929,101.8277,740.2088,132.1493,782.2286,15.8783,1011.9511,-93.6274
182030,LL,40,1.206666,-23.4442,1.256682,-141.4474,1.210409,101.3024,815.7357,135.5513,848.088,18.4414,1018.5516,-94.2805
182030,3LG,0,0.22088,-40.5632,0.221366,-160.4305,0.220761,79.5153,5335.5619,-84.1267,5344.9516,155.9332,5337.4525,35.8919
182030,3LG,10,1.166745,-27.1444,1.16903,-146.7395,1.160176,92.9502,292.1356,83.1718,287.0296,-37.311,287.2145,-157.6022
182030,3LG,20,1.204054,-23.7504,1.204699,-143.3633,1.196886,96.2569,611.7576,128.3835,604.3814,8.781,602.7077,-111.747
182030,3LG,30,1.215765,-22.5458,1.215923,-142.1733,1.208608,97.4315,752.2184,134.9591,744.4926,15.3845,742.2696,-105.1471
182030,3LG,40,1.221446,-21.9301,1.221384,-141.5663,1.214334,98.0327,825.4126,137.6268,817.4956,18.0534,815.0535,-102.4776
182153,SLG,0,0.377596,-51.4219,1.783046,-144.3456,1.212676,124.3749,2888.0132,-105.6283,1667.0298,17.6465,1095.5242,-63.1002
182153,SLG,10,1.22925,-34.154,1.339905,-133.843,1.067817,100.8177,307.009,60.7659,1175.9987,31.9294,853.6901,-93.9713
182153,SLG,20,1.249766,-27.2436,1.275657,-136.1747,1.145207,99.4769,603.5771,120.657,1096.782,29.1182,942.6667,-96.203
182153,SLG,30,1.249394,-24.8679,1.259652,-137.2403,1.173626,99.4656,748.6358,130.2118,1076.0552,27.7615,975.5858,-96.349
182153,SLG,40,1.247859,-23.6659,1.252739,-137.8181,1.18798,99.5173,823.8683,134.1775,1066.9247,27.0118,992.303,-96.3395
182153,LL,0,0.414077,-38.0074,0.442477,-172.1748,1.572732,106.503,3090.3112,-59.8834,4372.4884,143.4761,1447.1863,-88.244
182153,LL,10,1.060879,-33.3363,1.310053,-149.1583,1.194275,107.7108,266.4932,63.8806,318.3348,-53.1306,1017.3397,-85.1637
182153,LL,20,1.160728,-27.8361,1.287292,-143.8081,1.186627,103.6263,542.7612,119.5541,620.5724,5.408,998.3836,-90.658
182153,LL,30,1.190701,-25.3884,1.271775,-142.272,1.196544,102.2245,699.2005,129.4947,760.3325,13.7198,1006.954,-92.6419
182153,LL,40,1.204191,-24.0984,1.263341,-141.5641,1.203494,101.572,783.4779,133.6366,831.4024,16.9866,1013.7583,-93.5749
182153,3LG,0,0.454575,-44.3656,0.455998,-164.1571,0.453881,75.7464,4210.7825,-76.1831,4223.3521,163.896,4211.9958,43.85
182153,3LG,10,1.160004,-27.7507,1.163099,-147.3237,1.153534,92.3932,274.4737,67.5463,271.4616,-53.0308,270.592,-173.1025
182153,3LG,20,1.201033,-24.1954,1.201975,-143.7821,1.19357,95.8392,568.9717,124.9569,562.4204,5.3717,560.4249,-115.1091
182153,3LG,30,1.213936,-22.8753,1.214224,-142.4832,1.206499,97.1184,719.3421,133.0607,712.173,13.5079,709.67,-107.0038
182153,3LG,40,1.220158,-22.1897,1.220165,-141.8106,1.21281,97.7845,799.2598,136.298,791.7559,16.7431,789.0793,-103.7765
182158,SLG,0,0.438014,-48.8208,1.765888,-143.6979,1.193535,123.5331,2678.6975,-105.2636,1657.9309,17.5031,1098.5754,-63.6021
182158,SLG,10,1.229192,-34.6858,1.347531,-133.5488,1.059117,101.0267,303.8781,54.5883,1194.6426,32.1492,840.3092,-93.0303
182158,SLG,20,1.252999,-27.5241,1.276992,-135.9187,1.139762,99.3707,592.2978,118.9322,1104.0348,29.4301,933.5847,-96.0531
182158,SLG,30,1.25226,-25.0596,1.25999,-137.0524,1.169998,99.3686,740.6615,129.1975,1080.3137,28.0125,969.286,-96.2974
182158,SLG,40,1.250283,-23.8102,1.252759,-137.6721,1.185288,99.435,817.8508,133.4507,1069.8553,27.215,987.5249,-96.3185
182158,LL,0,0.473624,-36.7198,0.503486,-169.2889,1.554937,106.5465,2816.1639,-58.5513,4037.6489,144.6012,1443.089,-88.6051
182158,LL,10,1.059877,-32.9932,1.306922,-149.6269,1.200411,107.8607,277.0056,68.5291,320.4923,-59.3035,1033.4183,-84.7666
182158,LL,20,1.157824,-28.2187,1.292266,-143.9307,1.183168,103.8847,526.811,118.0408,613.3393,3.8265,998.5008,-90.0442
182158,LL,30,1.189635,-25.6793,1.275355,-142.3207,1.193318,102.3691,687.0601,128.5389,755.3835,12.88,1005.4899,-92.2523
182158,LL,40,1.203763,-24.3272,1.266052,-141.5874,1.200783,101.6666,773.9188,132.9299,827.7141,16.4198,1012.1309,-93.2975
182158,3LG,0,0.515353,-42.3463,0.517123,-162.101,0.514334,77.7817,3867.4113,-74.9218,3880.5632,165.1708,3868.2915,45.1158
182158,3LG,10,1.15825,-27.9109,1.161587,-147.4811,1.151859,92.2455,273.5559,63.2146,271.1817,-57.376,269.9367,-177.3954
182158,3LG,20,1.200425,-24.3305,1.201466,-143.9089,1.192858,95.7126,557.9491,123.7359,551.6602,4.1521,549.5062,-116.3102
182158,3LG,30,1.213649,-22.9782,1.213972,-142.5794,1.206105,97.0205,710.5271,132.3595,703.5308,12.8125,700.8905,-107.6917
182158,3LG,40,1.219997,-22.2717,1.220016,-141.8874,1.212555,97.7057,792.1457,135.7992,784.7668,16.2499,781.9748,-104.2659
182162,SLG,0,0.488798,-46.583,1.750031,-143.2073,1.179776,122.7388,2497.5781,-105.2695,1648.8637,17.2943,1103.4595,-64.1084
182162,SLG,10,1.228666,-35.2186,1.355675,-133.27,1.050391,101.2718,302.127,48.3821,1213.8376,32.3154,827.6661,-91.9874
182162,SLG,20,1.256251,-27.8045,1.278448,-135.6601,1.134211,99.2655,581.4771,117.164,1111.6298,29.7335,924.3982,-95.8815
182162,SLG,30,1.255211,-25.2498,1.260341,-136.8615,1.166317,99.2692,733.0879,128.1613,1084.7509,28.263,962.8745,-96.2383
182162,SLG,40,1.252797,-23.9526,1.252759,-137.5235,1.182569,99.3499,812.1877,132.7089,1072.8904,27.4197,982.6569,-96.2943
182162,LL,0,0.522858,-35.6515,0.552712,-166.8302,1.539335,106.5232,2591.9616,-57.5299,3758.0377,145.3112,1438.898,-88.9743
182162,LL,10,1.059122,-32.6568,1.303589,-150.0781,1.20653,107.9977,289.588,72.6517,324.6643,-65.173,1049.653,-84.4228
182162,LL,20,1.154694,-28.5958,1.297418,-144.0634,1.179884,104.1581,511.3293,116.5553,606.7151,2.1581,999.3131,-89.412
182162,LL,30,1.188531,-25.9703,1.279103,-142.3707,1.190073,102.5208,675.2848,127.5813,750.9579,12.0014,1004.2461,-91.8471
182162,LL,40,1.203361,-24.5566,1.268887,-141.6094,1.198021,101.7644,764.6726,132.2164,824.4712,15.8304,1010.5815,-93.0095
182162,3LG,0,0.5642,-40.6587,0.566254,-160.3808,0.562843,79.4813,3584.5315,-74.0428,3597.9303,166.0621,3585.1587,45.9977
182162,3LG,10,1.15659,-28.0622,1.160168,-147.6313,1.150307,92.1056,274.1318,59.12,272.3882,-61.4766,270.7796,178.5546
182162,3LG,20,1.199891,-24.4616,1.201043,-144.0317,1.192228,95.5904,547.799,122.4927,541.7848,2.9089,539.4693,-117.5322
182162,3LG,30,1.213428,-23.0786,1.21379,-142.673,1.205776,96.9252,702.3037,131.6447,695.4881,12.1034,692.7029,-108.3924
182162,3LG,40,1.219892,-22.3519,1.219923,-141.9621,1.212354,97.6289,785.4833,135.2903,778.2339,15.7467,775.3197,-104.7647
